25

H      -0.6323466734174319      0.21341858083999837      -0.8052270584540473
H      0.23251625552387037      1.7034135323298634      -0.10141684745037899
H      -0.3541784844540839      -0.7928152657680589      0.7160950662280378
H      -1.5816044238827134      0.28253296411794626      -0.17876184615413485
H      -0.5254061727006013      0.18640980965767742      1.3695346128746946
H      0.17215070457059659      0.6443861424309204      -0.18117517965463692
H      0.07661903979439266      -0.40188476911233295      -0.21749175319774938
H      -1.4099807282277976      -0.33931523589179385      0.7961740433500527
H      -0.7927350114435027      1.1495038914391107      -0.18905218662771545
H      0.8374954693994633      -0.9201434447375185      -0.7480874698598633
H      -0.0627206016776129      -1.452275110869576      -0.18436649901885294
H      0.5735333147948196      0.7281157971710082      1.5216779032590113
H      -0.17301615481435054      1.069964880123052      0.7593290269825614
H      0.7903403681448163      -0.9049166888071252      0.4126086400664052
H      0.45509964524882013      0.12086916624178781      -1.0988072291259623
H      0.34977133902026447      0.05766986773197345      0.7155769719887216
H      -0.63461818210992      0.1817679653330898      0.29627072275274585
H      -0.9722335124212306      -0.7103559530602409      -0.23327760674888298
H      -1.2963182583692998      0.8391264547682284      0.8055256018915549
H      -0.24871872193193906      -0.8050875425857548      -1.1453933464519028
H      0.9414537156176479      0.9836089149079622      0.4843549007102408
H      -0.061948589899544645      1.1581606023137438      -1.084709296200113
H      1.01889610449121      1.0535658490115556      -0.675625878411162
H      1.4046740367670083      0.04481960716584342      0.9154720096835413
H      1.0785631085918674      0.0363101448348865      -0.15413987908709714
