100

H      4.025154403448696      2.039118333805424      0
H      3.116877123387198      4.8249842420298075      0
H      4.203305788420868      -2.426699687995602      0
H      -2.3811628910216918      -5.032001376884967      0
H      -5.325865284976999      2.178217427862789      0
H      -0.8615718482651963      1.6593720918457118      0
H      -3.6308133466289765      -0.7301626340617022      0
H      -5.343274152204123      0.19766571645585945      0
H      0.15032376806147674      -0.17585154678707546      0
H      -2.6093469715717768      -1.0933978245260927      0
H      -5.879399091019231      1.1859583769976678      0
H      -0.8995442047070301      4.8495176137353075      0
H      2.1203224164606254      5.359298548465903      0
H      2.1405247321334095      -0.2582523973406733      0
H      -4.472145272008798      -2.8018676708486256      0
H      -1.6195489818383018      0.8522394907096394      0
H      1.6511679953050002      -3.9548498278451207      0
H      -3.4053380777892217      -3.068796225429679      0
H      -5.059108928742575      -1.8013935838358694      0
H      4.984060474628605      1.5027406920331046      0
H      2.084402241273889      0.8717812515723733      0
H      1.1830498754511032      3.729960394956148      0
H      0.32866784737353044      -1.9761586664743895      0
H      -2.900688290622323      -4.062285395491775      0
H      3.1160685775320442      -1.8683074257692942      0
H      -0.5802014247049608      0.6509038184748721      0
H      0.21258938903614627      2.0352699298492434      0
H      -0.7894645042249853      3.755831759531066      0
H      -2.7228191211507595      3.320651980358623      0
H      2.749987461398909      -3.859376628314574      0
H      -3.8029184718793774      3.214546769050419      0
H      4.079601822593412      -1.3180884359182252      0
H      -2.305018965816703      -3.15453384525184      0
H      -1.1713640359857442      -3.1504903437459806      0
H      2.1373511732725157      -2.905414730104513      0
H      -1.6851547864646503      3.0489316586744617      0
H      0.16879812063547134      4.299982872583982      0
H      -1.0677178569219878      -0.2544308119027717      0
H      3.430096530465886      -4.732043879212235      0
H      -1.906896550714342      1.9937195840552193      0
H      2.1568390472515366      -1.3280699963320237      0
H      -1.7428726462169535      -4.107171361087321      0
H      4.0294027306101645      -0.18257810214055348      0
H      -4.719379555919315      -0.7451620397708087      0
H      -1.8291015982342664      4.12733739894544      0
H      -0.6811597071592016      2.688453869792888      0
H      0.14891946663879158      5.401517298920201      0
H      1.1817316027172253      0.19335120089740043      0
H      2.134657892007269      3.154090299636854      0
H      1.0191715307419573      -3.061324147410512      0
H      -3.699430913106602      1.246727779750789      0
H      1.1497586494357417      5.927405635422162      0
H      -2.6327777240095442      1.1996555556491322      0
H      3.9454110159392486      -3.7574906098470024      0
H      0.4029915335487196      0.9253604481858221      0
H      1.3902196745364903      -2.0604135358324247      0
H      2.1465931552728232      4.2567895306831      0
H      -0.07224961557252052      -3.0611307609635987      0
H      1.1398965101407685      4.821540439191558      0
H      4.01626746293307      0.9290464372028031      0
H      0.5355575237419217      -4.038417817809304      0
H      -1.5125235831066528      -1.204700727963089      0
H      -2.888740338243065      -2.139566121802093      0
H      -4.214620982973781      2.2011739728375006      0
H      2.3150018598310393      -4.870211842319953      0
H      1.1752458432095199      2.6189242443507443      0
H      0.045646413934598944      -5.025971206645536      0
H      -4.78047035892622      1.213668720716163      0
H      4.997092520175828      -0.6829218979110571      0
H      3.057726252774534      0.34402083382789683      0
H      -4.049352354992618      -3.9562326042239833      0
H      3.0998215386962262      3.694678516570274      0
H      3.0564358357191095      1.456122611115455      0
H      4.98624502495015      0.4080098310806294      0
H      -0.5770034118704974      -4.085338190760992      0
H      -0.3865517961834125      -1.1211083576390055      0
H      3.0915221303795537      2.580930434392744      0
H      4.052994463795571      3.1541044104285083      0
H      3.2437511063031605      -2.9175888997256907      0
H      -3.070139484229302      2.2423467229464364      0
H      -3.94263890933663      -1.7931958880806274      0
H      -2.8839125061740956      4.431816792594094      0
H      5.01481070779829      2.607613377722228      0
H      -3.5151388943473783      -4.970109392203975      0
H      -0.7364238332733941      -2.1428965236335293      0
H      -1.806343760221254      -2.221746519232412      0
H      -2.0068468763806377      5.194551900876508      0
H      1.1786216100578524      -4.958979037971833      0
H      -5.804038445293602      -0.875695473283005      0
H      3.1102722123448414      -0.7716801243158156      0
H      0.24486906005042003      3.1996010114233613      0
H      5.963598961877065      0.9741157347649018      0
H      1.0369800301938152      -0.9594130384134933      0
H      1.2432022135458556      1.5334221188238908      0
H      -3.157373437689065      0.25132409621195984      0
H      2.1540996017445027      2.053001648062149      0
H      -4.235432614345623      0.2555223369859747      0
H      -2.138512090509249      -0.11387119893949525      0
H      5.112142173218615      -1.781238737485802      0
H      5.952782475364055      -0.15381344605319705      0
